Version 4
SHEET 1 1012 680
WIRE 688 -176 400 -176
WIRE 400 -112 400 -176
WIRE -16 -48 -48 -48
WIRE 112 -48 -16 -48
WIRE 256 -32 176 -32
WIRE 352 -32 336 -32
WIRE 112 -16 32 -16
WIRE 688 -16 688 -176
WIRE -256 32 -256 -64
WIRE -48 32 -48 -48
WIRE 32 32 32 -16
WIRE 400 32 400 -16
WIRE 400 32 32 32
WIRE 400 48 400 32
WIRE -256 240 -256 112
WIRE -48 240 -48 112
WIRE -48 240 -256 240
WIRE 400 240 400 128
WIRE 400 240 -48 240
WIRE 544 240 400 240
WIRE 688 240 688 64
WIRE 688 240 544 240
WIRE 544 272 544 240
FLAG 544 272 0
FLAG -256 -64 V
FLAG 128 0 V
FLAG 160 -64 0
FLAG -16 -48 Vref
SYMBOL voltage 688 -32 R0
WINDOW 123 0 0 Left 2
WINDOW 39 0 0 Left 2
SYMATTR InstName V1
SYMATTR Value PULSE(0 30 0 .2 .2 .3 1 1)
SYMBOL res 384 32 R0
SYMATTR InstName R1
SYMATTR Value .1R
SYMBOL voltage -48 16 R0
WINDOW 123 0 0 Left 2
WINDOW 39 0 0 Left 2
SYMATTR InstName V2
SYMATTR Value .1
SYMBOL voltage -256 16 R0
WINDOW 123 0 0 Left 2
WINDOW 39 0 0 Left 2
SYMATTR InstName V3
SYMATTR Value 2.7
SYMBOL nmos 352 -112 R0
SYMATTR InstName M1
SYMATTR Value AP9465GEM
SYMBOL Opamps\\LT1218 144 -32 M180
WINDOW 3 -33 74 Left 2
SYMATTR InstName U1
SYMBOL res 352 -48 R90
WINDOW 0 0 56 VBottom 2
WINDOW 3 32 56 VTop 2
SYMATTR InstName R2
SYMATTR Value 1000
TEXT -194 296 Left 2 !.tran 0 2 0
