Version 4
SHEET 1 880 680
WIRE 688 -176 400 -176
WIRE 336 -112 128 -112
WIRE 400 -112 400 -176
WIRE 128 -48 128 -112
WIRE 176 -48 128 -48
WIRE 352 -32 240 -32
WIRE 176 -16 32 -16
WIRE 688 -16 688 -176
WIRE 336 16 336 -112
WIRE 400 16 400 -16
WIRE 400 16 336 16
WIRE -160 32 -160 -64
WIRE 32 32 32 -16
WIRE 400 48 400 16
WIRE 32 240 32 112
WIRE 400 240 400 128
WIRE 400 240 32 240
WIRE 544 240 400 240
WIRE 688 240 688 64
WIRE 688 240 544 240
WIRE 544 272 544 240
FLAG 544 272 0
FLAG 208 0 0
FLAG -160 112 0
FLAG -160 -64 2.7V
FLAG 208 -64 2.7V
SYMBOL Opamps\\LT1001 208 -96 R0
SYMATTR InstName U1
SYMBOL voltage 688 -32 R0
WINDOW 123 0 0 Left 2
WINDOW 39 0 0 Left 2
SYMATTR InstName V1
SYMATTR Value 3.7
SYMBOL res 384 32 R0
SYMATTR InstName R1
SYMATTR Value .1R
SYMBOL nmos 352 -112 R0
SYMATTR InstName M1
SYMATTR Value BSB013NE2LXI
SYMBOL voltage 32 16 R0
WINDOW 123 0 0 Left 2
WINDOW 39 0 0 Left 2
SYMATTR InstName V2
SYMATTR Value PULSE(0 .1 .5 .1 .1 .3 1 2)
SYMBOL voltage -160 16 R0
WINDOW 123 0 0 Left 2
WINDOW 39 0 0 Left 2
SYMATTR InstName V3
SYMATTR Value 2.7
TEXT -192 296 Left 2 !.tran 0 2 0
